21
Last coordinate set from file ../logs/13DMXd.log
 C   -1.3222740000e+00    8.4699200000e-01    2.5000000000e-05
 N   -1.4279530000e+00   -5.5778900000e-01   -2.7300000000e-04
 C   -3.6732600000e-01   -1.4901490000e+00    1.0500000000e-04
 C    9.0045300000e-01   -8.2772000000e-01    4.7500000000e-04
 C    1.0515390000e+00    5.3939400000e-01    0.0000000000e+00
 N   -3.5982000000e-02    1.3766480000e+00   -4.6500000000e-04
 O   -2.2953530000e+00    1.5762530000e+00    6.0500000000e-04
 C   -2.7766080000e+00   -1.1299720000e+00   -4.3300000000e-04
 O   -5.6720400000e-01   -2.6928850000e+00    2.0000000000e-06
 C    1.0504600000e-01    2.8301800000e+00    1.0000000000e-06
 N    2.1879680000e+00   -1.3257870000e+00    2.8000000000e-04
 C    3.0162130000e+00   -2.5443600000e-01   -1.1500000000e-04
 N    2.3649910000e+00    9.0047600000e-01   -2.7500000000e-04
 H    2.4341010000e+00   -2.3022520000e+00    6.7500000000e-04
 H    4.0909830000e+00   -3.5519500000e-01   -1.8200000000e-04
 H   -3.6606900000e-01    3.2550610000e+00    8.8926400000e-01
 H    1.1693840000e+00    3.0598800000e+00   -8.6150000000e-03
 H   -3.8116500000e-01    3.2557990000e+00   -8.8055500000e-01
 H   -2.9076510000e+00   -1.7678590000e+00   -8.7727600000e-01
 H   -2.9185090000e+00   -1.7459730000e+00    8.9051300000e-01
 H   -3.4860480000e+00   -3.0697700000e-01   -1.3909000000e-02
