21
Last coordinate set from file ../logs/37DMXb.log
 C   -1.9564070000e+00    6.3370700000e-01   -2.5400000000e-04
 N   -9.8319800000e-01    1.6368280000e+00   -4.2200000000e-04
 C    4.1989500000e-01    1.5363510000e+00    1.1500000000e-04
 C    7.9956700000e-01    1.5416000000e-01   -3.3200000000e-04
 C   -1.1129000000e-01   -8.8542700000e-01   -1.4700000000e-04
 N   -1.4702470000e+00   -6.6781000000e-01   -3.6000000000e-04
 O   -3.1430810000e+00    8.8791100000e-01    7.6000000000e-05
 H   -1.3600100000e+00    2.5748870000e+00    2.1600000000e-04
 O    1.1387750000e+00    2.5198160000e+00    1.0150000000e-03
 C   -2.4339260000e+00   -1.7646070000e+00   -1.0200000000e-04
 N    2.0434650000e+00   -4.5324500000e-01    3.4500000000e-04
 C    1.8028080000e+00   -1.7842640000e+00    5.6400000000e-04
 N    5.1072700000e-01   -2.0922210000e+00    4.8700000000e-04
 C    3.3325570000e+00    2.1860100000e-01   -9.2100000000e-04
 H    2.6072890000e+00   -2.5052360000e+00    9.1300000000e-04
 H   -3.0784680000e+00   -1.6988470000e+00   -8.7957600000e-01
 H   -1.8747290000e+00   -2.6986990000e+00   -1.1367000000e-02
 H   -3.0640130000e+00   -1.7127680000e+00    8.9089700000e-01
 H    3.4277290000e+00    8.5776100000e-01    8.7906100000e-01
 H    4.1182820000e+00   -5.3870300000e-01    7.5600000000e-03
 H    3.4339180000e+00    8.4381400000e-01   -8.9032600000e-01
