21
Last coordinate set from file ../logs/37DMXd.log
 C    1.9575140000e+00    6.3092200000e-01    9.8100000000e-04
 N    9.8440700000e-01    1.6345450000e+00    8.5500000000e-04
 C   -4.1691100000e-01    1.5361970000e+00   -1.0880000000e-03
 C   -8.0238900000e-01    1.5463400000e-01    2.3000000000e-04
 C    1.0978900000e-01   -8.8427700000e-01    1.0800000000e-04
 N    1.4694720000e+00   -6.6871400000e-01    4.3100000000e-04
 O    3.1441520000e+00    8.8537100000e-01    1.4630000000e-03
 H    1.3612750000e+00    2.5726240000e+00    2.0800000000e-04
 O   -1.1296300000e+00    2.5263300000e+00   -3.6930000000e-03
 C    2.4312710000e+00   -1.7672700000e+00   -2.8500000000e-04
 N   -2.0461500000e+00   -4.5507500000e-01   -9.1000000000e-04
 C   -1.8039750000e+00   -1.7855600000e+00   -1.8170000000e-03
 N   -5.1106700000e-01   -2.0913180000e+00   -1.1800000000e-03
 C   -3.3390960000e+00    2.2094000000e-01    3.9570000000e-03
 H   -2.6055350000e+00   -2.5098270000e+00   -2.8990000000e-03
 H    3.0750870000e+00   -1.7024310000e+00   -8.8038100000e-01
 H    3.0623100000e+00   -1.7161530000e+00    8.9006000000e-01
 H    1.8705980000e+00   -2.7004280000e+00   -1.1015000000e-02
 H   -3.1527310000e+00    1.2940610000e+00   -2.9786000000e-02
 H   -3.9264140000e+00   -7.7015000000e-02   -8.6845300000e-01
 H   -3.8946040000e+00   -2.4022000000e-02    9.1321700000e-01
